# ====================
# | Model parameters |
# ====================

# Continuous equation parameters
 &PARM01
 &

# Elliptic solver parameters
 &PARM02
 &

# Time stepping parameters
 &PARM03
 &

# Gridding parameters
 &PARM04
 usingSphericalPolarGrid=.TRUE.,
 delX=567*0.125,
 delY=328*0.125,
 xgOrigin=-78,
 ygOrigin=6,
 &

# Input datasets
 &PARM05
 bathyFile = 'ATL_bathymetry.bin',
 &
